caso-0/ieee34-1_Curr_Elem.Txt

CIRCUIT ELEMENT CURRENTS

(Currents into element from indicated bus)

Power Delivery Elements

  Bus     Phase    Magnitude, A     Angle      (Real)   +j  (Imag)

ELEMENT = "Vsource.SOURCE"
SOURCEBUS     1           16.923 /_ -162.7 =     -16.16 +j   -5.0217
SOURCEBUS     2           15.035 /_   83.6 =     1.6882 +j     14.94
SOURCEBUS     3           17.545 /_  -34.4 =     14.472 +j   -9.9182
------------
SOURCEBUS     0           16.923 /_   17.3 =      16.16 +j    5.0217
SOURCEBUS     0           15.035 /_  -96.4 =    -1.6882 +j    -14.94
SOURCEBUS     0           17.545 /_  145.6 =    -14.472 +j    9.9182

ELEMENT = "Transformer.SUBXF"
SOURCEBUS     1           16.923 /_   17.3 =      16.16 +j    5.0217
SOURCEBUS     2           15.035 /_  -96.4 =    -1.6882 +j    -14.94
SOURCEBUS     3           17.545 /_  145.6 =    -14.472 +j    9.9182
SOURCEBUS     0                0 /_    0.0 =          0 +j         0
------------
800           1           51.801 /_  167.5 =    -50.572 +j     11.22
800           2           44.456 /_   52.6 =     26.992 +j    35.324
800           3           40.995 /_  -62.6 =      18.89 +j   -36.383
800           0           11.191 /_  -65.2 =     4.6897 +j   -10.161

ELEMENT = "Line.L1"
800           1           51.801 /_  -12.5 =     50.572 +j    -11.22
800           2           44.456 /_ -127.4 =    -26.992 +j   -35.324
800           3           40.995 /_  117.4 =     -18.89 +j    36.383
------------
802           1           51.815 /_  167.4 =    -50.575 +j    11.269
802           2           44.456 /_   52.6 =     27.028 +j    35.296
802           3           40.999 /_  -62.6 =     18.855 +j   -36.406

ELEMENT = "Line.L2"
802           1           51.815 /_  -12.6 =     50.575 +j   -11.269
802           2           43.407 /_ -127.0 =    -26.099 +j   -34.684
802           3           40.152 /_  118.0 =    -18.843 +j    35.456
------------
806           1           51.825 /_  167.4 =    -50.577 +j    11.301
806           2           43.406 /_   53.0 =     26.124 +j    34.665
806           3           40.154 /_  -62.1 =      18.82 +j   -35.471

ELEMENT = "Line.L3"
806           1           51.825 /_  -12.6 =     50.577 +j   -11.301
806           2           42.359 /_ -126.5 =    -25.193 +j   -34.054
806           3           39.311 /_  118.6 =    -18.809 +j     34.52
------------
808           1           51.995 /_  166.8 =    -50.615 +j    11.899
808           2           42.351 /_   52.7 =     25.641 +j    33.707
808           3           39.352 /_  -62.2 =     18.372 +j   -34.801

ELEMENT = "Line.L4"
808           2          0.59757 /_ -142.3 =   -0.47298 +j  -0.36521
------------
810           2          0.62591 /_   31.8 =    0.53194 +j   0.32985

ELEMENT = "Line.L5"
808           1           51.995 /_  -13.2 =     50.615 +j   -11.899
808           2           41.192 /_ -126.7 =    -24.636 +j   -33.012
808           3           39.352 /_  117.8 =    -18.372 +j    34.801
------------
812           1           52.187 /_  166.1 =     -50.65 +j    12.574
812           2           41.178 /_   52.4 =     25.143 +j    32.611
812           3           39.399 /_  -63.0 =      17.87 +j   -35.114

ELEMENT = "Line.L6"
812           1           52.187 /_  -13.9 =      50.65 +j   -12.574
812           2           41.178 /_ -127.6 =    -25.143 +j   -32.611
812           3           39.399 /_  117.0 =     -17.87 +j    35.114
------------
814           1           52.334 /_  165.5 =     -50.67 +j    13.093
814           2           41.168 /_   51.7 =     25.533 +j    32.294
814           3           39.436 /_  -63.7 =     17.477 +j   -35.351

ELEMENT = "Line.L7"
814R          1           48.123 /_  -14.5 =     46.593 +j   -12.039
814R          2           40.164 /_ -128.3 =    -24.909 +j   -31.507
814R          3            38.24 /_  116.3 =    -16.949 +j    34.279
------------
850           1           48.123 /_  165.5 =    -46.593 +j    12.039
850           2           40.164 /_   51.7 =     24.909 +j    31.507
850           3           38.241 /_  -63.7 =     16.949 +j   -34.279

ELEMENT = "Line.L8"
816           1           12.913 /_  -26.7 =     11.534 +j   -5.8056
------------
818           1           12.921 /_  153.2 =    -11.533 +j    5.8258

ELEMENT = "Line.L9"
816           1           35.609 /_  -10.1 =     35.059 +j   -6.2387
816           2           40.059 /_ -128.4 =    -24.868 +j   -31.405
816           3           38.172 /_  116.4 =    -16.989 +j    34.183
------------
824           1           35.646 /_  169.6 =    -35.063 +j    6.4187
824           2           40.055 /_   51.4 =     24.998 +j    31.297
824           3           38.185 /_  -63.8 =     16.856 +j   -34.263

ELEMENT = "Line.L10"
818           1           11.564 /_  -26.6 =     10.344 +j   -5.1688
------------
820           1           11.805 /_  151.0 =    -10.321 +j     5.731

ELEMENT = "Line.L11"
820           1           5.2117 /_  -28.3 =     4.5898 +j   -2.4689
------------
822           1           5.2828 /_  150.2 =    -4.5832 +j    2.6272

ELEMENT = "Line.L12"
824           2             1.54 /_ -148.4 =     -1.311 +j  -0.80791
------------
826           2           1.5554 /_   30.5 =     1.3406 +j   0.78875

ELEMENT = "Line.L13"
824           1           35.646 /_  -10.4 =     35.063 +j   -6.4187
824           2           37.063 /_ -127.0 =    -22.301 +j   -29.602
824           3           37.977 /_  116.4 =    -16.898 +j    34.011
------------
828           1           35.649 /_  169.6 =    -35.064 +j    6.4335
828           2           37.062 /_   53.0 =     22.312 +j    29.593
828           3           37.978 /_  -63.6 =     16.887 +j   -34.017

ELEMENT = "Line.L14"
828           1           35.398 /_  -10.3 =     34.829 +j   -6.3208
828           2           37.062 /_ -127.0 =    -22.312 +j   -29.593
828           3           37.839 /_  116.5 =    -16.884 +j    33.863
------------
830           1           35.471 /_  169.2 =    -34.837 +j    6.6763
830           2           37.045 /_   52.5 =     22.567 +j    29.378
830           3           37.862 /_  -64.0 =      16.62 +j   -34.019

ELEMENT = "Line.L15"
830           1           34.001 /_   -9.6 =     33.523 +j   -5.6854
830           2           36.331 /_ -127.1 =    -21.897 +j    -28.99
830           3           36.549 /_  116.3 =    -16.214 +j    32.756
------------
854           1           34.003 /_  170.4 =    -33.523 +j    5.6944
854           2            36.33 /_   52.9 =     21.904 +j    28.985
854           3            36.55 /_  -63.7 =     16.207 +j    -32.76

ELEMENT = "Line.L16"
832           1           21.058 /_    1.2 =     21.053 +j    0.4544
832           2           23.184 /_ -116.1 =    -10.192 +j   -20.824
832           3           24.164 /_  128.6 =    -15.091 +j    18.873
------------
858           1           21.057 /_ -179.0 =    -21.054 +j  -0.36597
858           2           23.163 /_   63.7 =     10.254 +j    20.769
858           3           24.152 /_  -51.5 =     15.024 +j    -18.91

ELEMENT = "Line.L17"
834           1           8.4589 /_  -39.8 =     6.4977 +j    -5.416
834           2           8.3446 /_ -155.6 =    -7.5975 +j   -3.4511
834           3           7.8878 /_   95.1 =   -0.69591 +j    7.8571
------------
860           1           8.4824 /_  140.0 =    -6.4979 +j    5.4523
860           2           8.3586 /_   24.2 =     7.6231 +j    3.4286
860           3           7.9007 /_  -85.1 =    0.66865 +j   -7.8723

ELEMENT = "Line.L18"
834           1           14.913 /_   34.8 =     12.252 +j     8.502
834           2           16.364 /_  -95.5 =     -1.571 +j   -16.289
834           3           15.184 /_  151.1 =    -13.294 +j    7.3362
------------
842           1            14.91 /_ -145.3 =    -12.252 +j   -8.4969
842           2           16.361 /_   84.5 =     1.5745 +j    16.285
842           3           15.182 /_  -28.9 =      13.29 +j   -7.3383

ELEMENT = "Line.L19"
836           1           1.1237 /_  -27.1 =     1.0005 +j  -0.51144
836           2           1.5536 /_ -154.4 =    -1.4015 +j  -0.67041
836           3           1.2606 /_   71.3 =      0.404 +j    1.1941
------------
840           1           1.1308 /_  152.2 =    -1.0006 +j   0.52689
840           2           1.5594 /_   25.1 =     1.4124 +j   0.66082
840           3           1.2705 /_ -109.1 =   -0.41561 +j   -1.2006

ELEMENT = "Line.L20"
836           1        0.0050314 /_   90.3 =  -2.8867E-005 +j 0.0050313
836           2           2.0773 /_ -149.4 =    -1.7886 +j   -1.0565
836           3        0.0043294 /_ -150.8 =  -0.0037779 +j -0.0021144
------------
862           1      2.1213E-011 /_  149.0 =  -1.819E-011 +j 1.0914E-011
862           2           2.0788 /_   30.4 =     1.7922 +j    1.0533
862           3       2.058E-011 /_  135.0 =  -1.4552E-011 +j 1.4552E-011

ELEMENT = "Line.L21"
842           1            14.78 /_   36.0 =     11.962 +j    8.6809
842           2           16.361 /_  -95.5 =    -1.5745 +j   -16.285
842           3           15.182 /_  151.1 =     -13.29 +j    7.3383
------------
844           1           14.766 /_ -144.1 =    -11.963 +j   -8.6566
844           2           16.348 /_   84.4 =     1.5916 +j     16.27
844           3           15.171 /_  -29.0 =     13.272 +j   -7.3485

ELEMENT = "Line.L22"
844           1           9.9673 /_   78.9 =      1.914 +j    9.7818
844           2           9.4421 /_  -57.9 =     5.0172 +j   -7.9988
844           3           9.6531 /_ -166.1 =    -9.3695 +j   -2.3227
------------
846           1           9.9031 /_ -101.1 =    -1.9143 +j   -9.7163
846           2           9.3832 /_  122.0 =    -4.9711 +j    7.9582
846           3           9.5988 /_   13.8 =     9.3203 +j    2.2953

ELEMENT = "Line.L23"
846           1           9.9031 /_   78.9 =     1.9143 +j    9.7163
846           2           9.6172 /_  -47.3 =     6.5221 +j   -7.0677
846           3           9.8463 /_ -161.9 =    -9.3587 +j   -3.0601
------------
848           1           9.8938 /_ -101.2 =    -1.9143 +j   -9.7068
848           2           9.6083 /_  132.7 =    -6.5154 +j    7.0618
848           3           9.8383 /_   18.1 =     9.3516 +j    3.0561

ELEMENT = "Line.L24"
850           1           48.123 /_  -14.5 =     46.593 +j   -12.039
850           2           40.164 /_ -128.3 =    -24.909 +j   -31.507
850           3           38.241 /_  116.3 =    -16.949 +j    34.279
------------
816           1           48.125 /_  165.5 =    -46.593 +j    12.044
816           2           40.164 /_   51.7 =     24.913 +j    31.504
816           3           38.241 /_  -63.7 =     16.945 +j   -34.282

ELEMENT = "Line.L25"
852R          1           31.557 /_  -10.7 =     31.012 +j   -5.8433
852R          2           33.321 /_ -128.2 =    -20.622 +j   -26.173
852R          3           33.838 /_  115.5 =    -14.559 +j    30.546
------------
832           1           31.557 /_  169.3 =    -31.012 +j    5.8434
832           2           33.321 /_   51.8 =     20.622 +j    26.172
832           3           33.838 /_  -64.5 =     14.559 +j   -30.546

ELEMENT = "Transformer.XFM1"
832           1            11.69 /_  -32.4 =     9.8752 +j   -6.2566
832           2           11.695 /_ -152.9 =    -10.407 +j   -5.3354
832           3           11.604 /_   87.4 =    0.53127 +j    11.592
832           0       0.00034935 /_   38.3 =  0.00027422 +j 0.00021645
------------
888           1           69.974 /_  147.6 =    -59.109 +j     37.45
888           2               70 /_   27.1 =      62.29 +j    31.935
888           3           69.456 /_  -92.6 =    -3.1799 +j   -69.384
888           0        0.0020911 /_ -141.7 =  -0.0016414 +j -0.0012956

ELEMENT = "Line.L26"
854           2          0.24112 /_  -69.0 =   0.086405 +j  -0.22511
------------
856           2          0.15677 /_   30.0 =    0.13579 +j  0.078355

ELEMENT = "Line.L27"
854           1           34.003 /_   -9.6 =     33.523 +j   -5.6944
854           2           36.059 /_ -127.3 =    -21.854 +j   -28.681
854           3            36.55 /_  116.3 =    -16.207 +j     32.76
------------
852           1           34.121 /_  169.3 =    -33.531 +j    6.3195
852           2           36.028 /_   51.8 =     22.299 +j    28.298
852           3           36.587 /_  -64.5 =     15.741 +j   -33.028

ELEMENT = "Line.L28"
858           1         0.067889 /_  -15.0 =   0.065586 +j -0.017534
------------
864           1         0.074331 /_  150.1 =  -0.064468 +j  0.036999

ELEMENT = "Line.L29"
858           1           20.633 /_    2.0 =     20.621 +j   0.71366
858           2           22.776 /_ -116.0 =    -9.9695 +j   -20.478
858           3           23.703 /_  129.5 =    -15.065 +j    18.299
------------
834           1            20.63 /_ -178.3 =    -20.621 +j   -0.6087
834           2            22.75 /_   63.8 =     10.044 +j    20.413
834           3           23.687 /_  -50.8 =     14.987 +j   -18.344

ELEMENT = "Line.L30"
860           1           2.7986 /_  -27.1 =     2.4916 +j   -1.2744
860           2           5.1575 /_ -152.8 =    -4.5882 +j   -2.3555
860           3           2.6045 /_   83.3 =    0.30467 +j    2.5866
------------
836           1           2.8211 /_  152.0 =    -2.4919 +j    1.3225
836           2           5.1743 /_   26.7 =     4.6222 +j    2.3256
836           3           2.6291 /_  -97.4 =   -0.34083 +j   -2.6069

ELEMENT = "Line.L31"
862           2           1.0272 /_ -148.0 =   -0.87153 +j   -0.5436
------------
838           2           1.0525 /_   29.0 =    0.92078 +j   0.50979

ELEMENT = "Line.L32"
888           1           69.974 /_  -32.4 =     59.109 +j    -37.45
888           2               70 /_ -152.9 =     -62.29 +j   -31.935
888           3           69.456 /_   87.4 =     3.1799 +j    69.384
------------
890           1            69.99 /_  147.6 =    -59.108 +j     37.48
890           2           70.009 /_   27.1 =     62.311 +j    31.915
890           3            69.47 /_  -92.6 =    -3.2033 +j   -69.396

ELEMENT = "Capacitor.C844"
844           1           7.2574 /_   86.6 =    0.42874 +j    7.2447
844           2           7.1999 /_  -34.5 =     5.9343 +j   -4.0771
844           3            7.209 /_ -154.0 =    -6.4802 +j   -3.1587
------------
844           0           7.2574 /_  -93.4 =   -0.42874 +j   -7.2447
844           0           7.1999 /_  145.5 =    -5.9343 +j    4.0771
844           0            7.209 /_   26.0 =     6.4802 +j    3.1587

ELEMENT = "Capacitor.C848"
848           1           10.889 /_   86.6 =    0.65294 +j     10.87
848           2             10.8 /_  -34.5 =      8.896 +j   -6.1239
848           3           10.817 /_ -154.1 =    -9.7281 +j   -4.7299
------------
848           0           10.889 /_  -93.4 =   -0.65294 +j    -10.87
848           0             10.8 /_  145.5 =     -8.896 +j    6.1239
848           0           10.817 /_   25.9 =     9.7281 +j    4.7299

ELEMENT = "Transformer.REG1A"
814           1           52.334 /_  -14.5 =      50.67 +j   -13.093
814           0           52.334 /_  165.5 =     -50.67 +j    13.093
------------
814R          1           48.123 /_  165.5 =    -46.593 +j    12.039
814R          0           48.123 /_  -14.5 =     46.593 +j   -12.039

ELEMENT = "Transformer.REG1B"
814           2           41.168 /_ -128.3 =    -25.533 +j   -32.294
814           0           41.168 /_   51.7 =     25.532 +j    32.295
------------
814R          2           40.164 /_   51.7 =     24.909 +j    31.507
814R          0           40.164 /_ -128.3 =    -24.909 +j   -31.507

ELEMENT = "Transformer.REG1C"
814           3           39.436 /_  116.3 =    -17.477 +j    35.351
814           0           39.436 /_  -63.7 =     17.478 +j   -35.351
------------
814R          3            38.24 /_  -63.7 =     16.949 +j   -34.279
814R          0           38.241 /_  116.3 =    -16.948 +j     34.28

ELEMENT = "Transformer.REG2A"
852           1           34.121 /_  -10.7 =     33.531 +j   -6.3195
852           0           34.121 /_  169.3 =    -33.531 +j    6.3188
------------
852R          1           31.557 /_  169.3 =    -31.012 +j    5.8433
852R          0           31.557 /_  -10.7 =     31.011 +j    -5.844

ELEMENT = "Transformer.REG2B"
852           2           36.028 /_ -128.2 =    -22.299 +j   -28.298
852           0           36.028 /_   51.8 =     22.298 +j    28.299
------------
852R          2           33.321 /_   51.8 =     20.622 +j    26.173
852R          0           33.321 /_ -128.2 =    -20.622 +j   -26.172

ELEMENT = "Transformer.REG2C"
852           3           36.587 /_  115.5 =    -15.741 +j    33.028
852           0           36.587 /_  -64.5 =     15.741 +j   -33.028
------------
852R          3           33.838 /_  -64.5 =     14.559 +j   -30.546
852R          0           33.838 /_  115.5 =    -14.558 +j    30.546

= = = = = = = = = = = = = = = = = = =  = = = = = = = = = = =  = =

Power Conversion Elements

  Bus     Phase    Magnitude, A     Angle      (Real)   +j  (Imag)

ELEMENT = "Load.S860"
860           1           1.7079 /_  -42.0 =      1.269 +j   -1.1431
860           2           1.7213 /_ -163.1 =    -1.6472 +j  -0.49981
860           3           1.7192 /_   77.4 =    0.37632 +j    1.6775
860           0         0.034721 /_  -86.9 =  0.0018625 +j -0.034671

ELEMENT = "Load.S840"
840           1          0.79311 /_  -41.2 =    0.59652 +j  -0.52267
840           2          0.79311 /_ -162.3 =   -0.75572 +j  -0.24065
840           3          0.79311 /_   78.1 =    0.16298 +j   0.77618
840           0         0.013413 /_ -106.4 =  -0.0037804 +j  -0.01287

ELEMENT = "Load.S844"
844           1           12.412 /_  -41.3 =     9.3302 +j   -8.1858
844           2           12.314 /_ -162.4 =    -11.735 +j   -3.7304
844           3           12.329 /_   78.1 =     2.5399 +j    12.065
844           0          0.20089 /_ -132.2 =   -0.13504 +j  -0.14873

ELEMENT = "Load.S848"
848           1           1.7157 /_  -42.7 =     1.2614 +j   -1.1629
848           2           1.7157 /_ -162.7 =    -1.6379 +j  -0.51088
848           3           1.7156 /_   77.3 =    0.37649 +j    1.6738

ELEMENT = "Load.S830A"
830           1          0.44915 /_    0.2 =    0.44915 +j 0.0017102
830           2          0.44915 /_ -179.8 =   -0.44915 +j -0.0017102

ELEMENT = "Load.S830B"
830           2          0.44443 /_ -119.7 =   -0.21999 +j  -0.38617
830           3          0.44443 /_   60.3 =    0.21999 +j   0.38617

ELEMENT = "Load.S830C"
830           3           1.0779 /_  125.6 =   -0.62688 +j   0.87687
830           1           1.0779 /_  -54.4 =    0.62688 +j  -0.87687

ELEMENT = "Load.S890"
890           1           69.991 /_  -32.4 =     59.109 +j   -37.481
890           2            70.01 /_ -152.9 =    -62.312 +j   -31.916
890           3           69.471 /_   87.4 =      3.203 +j    69.397

ELEMENT = "Load.D802_806SB"
802           2           1.1127 /_ -146.6 =   -0.92926 +j  -0.61196
802           0           1.1127 /_   33.4 =    0.92926 +j   0.61196

ELEMENT = "Load.D802_806RB"
806           2           1.1137 /_ -146.7 =   -0.93062 +j   -0.6118
806           0           1.1137 /_   33.3 =    0.93062 +j    0.6118

ELEMENT = "Load.D802_806SC"
802           3          0.95053 /_   90.7 =  -0.011595 +j   0.95046
802           0          0.95053 /_  -89.3 =   0.011595 +j  -0.95046

ELEMENT = "Load.D802_806RC"
806           3          0.95146 /_   90.7 =  -0.011048 +j    0.9514
806           0          0.95146 /_  -89.3 =   0.011048 +j   -0.9514

ELEMENT = "Load.D808_810SB"
808           2          0.62593 /_ -148.2 =   -0.53197 +j  -0.32983
808           0          0.62593 /_   31.8 =    0.53197 +j   0.32983

ELEMENT = "Load.D808_810RB"
810           2          0.62591 /_ -148.2 =   -0.53194 +j  -0.32985
810           0          0.62591 /_   31.8 =    0.53194 +j   0.32985

ELEMENT = "Load.D818_820SA"
818           1           1.3586 /_  -28.9 =     1.1892 +j  -0.65699
818           0           1.3586 /_  151.1 =    -1.1892 +j   0.65699

ELEMENT = "Load.D818_820RA"
820           1           1.3276 /_  -29.0 =     1.1614 +j  -0.64316
820           0           1.3276 /_  151.0 =    -1.1614 +j   0.64316

ELEMENT = "Load.D820_822SA"
820           1            5.267 /_  -29.8 =     4.5697 +j    -2.619
820           0            5.267 /_  150.2 =    -4.5697 +j     2.619

ELEMENT = "Load.D820_822RA"
822           1           5.2828 /_  -29.8 =     4.5832 +j   -2.6272
822           0           5.2828 /_  150.2 =    -4.5832 +j    2.6272

ELEMENT = "Load.D816_824SB"
816           2          0.10814 /_ -114.2 =    -0.0443 +j -0.098645
816           3          0.10814 /_   65.8 =     0.0443 +j  0.098645

ELEMENT = "Load.D816_824RB"
824           2          0.10814 /_ -114.4 =  -0.044686 +j -0.098471
824           3          0.10814 /_   65.6 =   0.044686 +j  0.098471

ELEMENT = "Load.D824_826SB"
824           2           1.5554 /_ -149.5 =    -1.3406 +j  -0.78876
824           0           1.5554 /_   30.5 =     1.3406 +j   0.78876

ELEMENT = "Load.D824_826RB"
826           2           1.5554 /_ -149.5 =    -1.3406 +j  -0.78875
826           0           1.5554 /_   30.5 =     1.3406 +j   0.78875

ELEMENT = "Load.D824_828SC"
824           3          0.15384 /_   91.2 =  -0.0031132 +j   0.15381
824           0          0.15384 /_  -88.8 =  0.0031132 +j  -0.15381

ELEMENT = "Load.D824_828RC"
828           3          0.15395 /_   91.1 =  -0.0030606 +j   0.15392
828           0          0.15395 /_  -88.9 =  0.0030606 +j  -0.15392

ELEMENT = "Load.D828_830SA"
828           1          0.25999 /_  -25.7 =    0.23432 +j  -0.11264
828           0          0.25999 /_  154.3 =   -0.23432 +j   0.11264

ELEMENT = "Load.D828_830RA"
830           1          0.26462 /_  -25.9 =    0.23798 +j  -0.11571
830           0          0.26462 /_  154.1 =   -0.23798 +j   0.11571

ELEMENT = "Load.D854_856SB"
854           2          0.15676 /_ -150.0 =   -0.13576 +j -0.078365
854           0          0.15676 /_   30.0 =    0.13576 +j  0.078365

ELEMENT = "Load.D854_856RB"
856           2          0.15677 /_ -150.0 =   -0.13579 +j -0.078356
856           0          0.15677 /_   30.0 =    0.13579 +j  0.078356

ELEMENT = "Load.D832_858SA"
832           1         0.092582 /_  -26.4 =   0.082909 +j -0.041203
832           0         0.092582 /_  153.6 =  -0.082909 +j  0.041203

ELEMENT = "Load.D832_858RA"
858           1         0.092378 /_  -26.5 =   0.082682 +j -0.041198
858           0         0.092378 /_  153.5 =  -0.082682 +j  0.041198

ELEMENT = "Load.D832_858SB"
832           2         0.026973 /_ -150.8 =   -0.02355 +j  -0.01315
832           0         0.026973 /_   29.2 =    0.02355 +j   0.01315

ELEMENT = "Load.D832_858RB"
858           2         0.026913 /_ -150.9 =  -0.023519 +j -0.013082
858           0         0.026913 /_   29.1 =   0.023519 +j  0.013082

ELEMENT = "Load.D832_858SC"
832           3         0.080987 /_   89.7 =  0.00043369 +j  0.080986
832           0         0.080987 /_  -90.3 =  -0.00043369 +j -0.080986

ELEMENT = "Load.D832_858RC"
858           3         0.080817 /_   89.6 =  0.00058661 +j  0.080814
858           0         0.080817 /_  -90.4 =  -0.00058661 +j -0.080814

ELEMENT = "Load.D858_864SB"
858           1         0.074331 /_  -29.9 =   0.064468 +j    -0.037
858           0         0.074331 /_  150.1 =  -0.064468 +j     0.037

ELEMENT = "Load.D858_864RB"
864           1         0.074332 /_  -29.9 =   0.064469 +j    -0.037
864           0         0.074332 /_  150.1 =  -0.064469 +j     0.037

ELEMENT = "Load.D858_834SA"
858           1         0.085709 /_   -0.5 =   0.085705 +j -0.00076309
858           2         0.085709 /_  179.5 =  -0.085705 +j 0.00076309

ELEMENT = "Load.D858_834RA"
834           1         0.085914 /_   -0.6 =    0.08591 +j -0.00090194
834           2         0.085914 /_  179.4 =   -0.08591 +j 0.00090194

ELEMENT = "Load.D858_834SB"
858           2          0.32949 /_ -122.2 =   -0.17537 +j  -0.27895
858           3          0.32949 /_   57.8 =    0.17537 +j   0.27895

ELEMENT = "Load.D858_834RB"
834           2          0.33029 /_ -122.3 =   -0.17636 +j  -0.27926
834           3          0.33029 /_   57.7 =    0.17636 +j   0.27926

ELEMENT = "Load.D858_834SC"
858           3          0.28515 /_  118.2 =   -0.13494 +j    0.2512
858           1          0.28515 /_  -61.8 =    0.13494 +j   -0.2512

ELEMENT = "Load.D858_834RC"
834           3          0.28595 /_  118.1 =   -0.13486 +j   0.25214
834           1          0.28595 /_  -61.9 =    0.13486 +j  -0.25214

ELEMENT = "Load.D834_860SA"
834           1          0.37546 /_   -0.6 =    0.37544 +j -0.0039416
834           2          0.37546 /_  179.4 =   -0.37544 +j 0.0039416

ELEMENT = "Load.D834_860RA"
860           1          0.37532 /_   -0.6 =     0.3753 +j -0.0039173
860           2          0.37532 /_  179.4 =    -0.3753 +j 0.0039173

ELEMENT = "Load.D834_860SB"
834           2          0.46407 /_ -120.8 =   -0.23739 +j  -0.39876
834           3          0.46407 /_   59.2 =    0.23739 +j   0.39876

ELEMENT = "Load.D834_860RB"
860           2           0.4639 /_ -120.8 =   -0.23731 +j  -0.39861
860           3           0.4639 /_   59.2 =    0.23731 +j   0.39861

ELEMENT = "Load.D834_860SC"
834           3           2.5606 /_  119.9 =    -1.2755 +j    2.2203
834           1           2.5606 /_  -60.1 =     1.2755 +j   -2.2203

ELEMENT = "Load.D834_860RC"
860           3           2.5594 /_  119.9 =     -1.275 +j    2.2193
860           1           2.5594 /_  -60.1 =      1.275 +j   -2.2193

ELEMENT = "Load.D860_836SA"
860           1           0.6446 /_   -0.6 =    0.64457 +j -0.0067278
860           2           0.6446 /_  179.4 =   -0.64457 +j 0.0067278

ELEMENT = "Load.D860_836RA"
836           1          0.64477 /_   -0.6 =    0.64473 +j -0.0067513
836           2          0.64477 /_  179.4 =   -0.64473 +j 0.0067513

ELEMENT = "Load.D860_836SB"
860           2          0.22666 /_ -125.2 =   -0.13054 +j  -0.18529
860           3          0.22666 /_   54.8 =    0.13054 +j   0.18529

ELEMENT = "Load.D860_836RB"
836           2          0.22672 /_ -125.2 =   -0.13057 +j  -0.18535
836           3          0.22672 /_   54.8 =    0.13057 +j   0.18535

ELEMENT = "Load.D860_836SC"
860           3          0.91863 /_  118.8 =   -0.44251 +j   0.80503
860           1          0.91863 /_  -61.2 =    0.44251 +j  -0.80503

ELEMENT = "Load.D860_836RC"
836           3           0.9188 /_  118.8 =    -0.4426 +j   0.80517
836           1           0.9188 /_  -61.2 =     0.4426 +j  -0.80517

ELEMENT = "Load.D836_840SA"
836           1          0.40411 /_   -0.6 =    0.40409 +j -0.0042314
836           2          0.40411 /_  179.4 =   -0.40409 +j 0.0042314

ELEMENT = "Load.D836_840RA"
840           1          0.40411 /_   -0.6 =    0.40409 +j -0.0042319
840           2          0.40411 /_  179.4 =   -0.40409 +j 0.0042319

ELEMENT = "Load.D836_840SB"
836           2          0.49391 /_ -120.8 =   -0.25264 +j  -0.42441
836           3          0.49391 /_   59.2 =    0.25264 +j   0.42441

ELEMENT = "Load.D836_840RB"
840           2          0.49391 /_ -120.8 =   -0.25263 +j  -0.42441
840           3          0.49391 /_   59.2 =    0.25263 +j   0.42441

ELEMENT = "Load.D862_838SB"
862           2           1.0523 /_ -151.0 =   -0.92064 +j  -0.50975
862           0           1.0523 /_   29.0 =    0.92064 +j   0.50975

ELEMENT = "Load.D862_838RB"
838           2           1.0525 /_ -151.0 =   -0.92079 +j   -0.5098
838           0           1.0525 /_   29.0 =    0.92079 +j    0.5098

ELEMENT = "Load.D842_844SA"
842           1          0.34314 /_  -32.4 =    0.28966 +j  -0.18396
842           0          0.34314 /_  147.6 =   -0.28966 +j   0.18396

ELEMENT = "Load.D842_844RA"
844           1          0.34321 /_  -32.4 =    0.28965 +j  -0.18411
844           0          0.34321 /_  147.6 =   -0.28965 +j   0.18411

ELEMENT = "Load.D844_846SB"
844           2          0.93181 /_ -150.1 =   -0.80804 +j  -0.46405
844           0          0.93181 /_   29.9 =    0.80804 +j   0.46405

ELEMENT = "Load.D844_846RB"
846           2          0.93182 /_ -150.2 =   -0.80842 +j  -0.46341
846           0          0.93182 /_   29.8 =    0.80842 +j   0.46341

ELEMENT = "Load.D844_846SC"
844           3            0.766 /_   87.2 =   0.037742 +j   0.76507
844           0            0.766 /_  -92.8 =  -0.037742 +j  -0.76507

ELEMENT = "Load.D844_846RC"
846           3           0.7658 /_   87.1 =   0.038401 +j   0.76483
846           0           0.7658 /_  -92.9 =  -0.038401 +j  -0.76483

ELEMENT = "Load.D846_848SB"
846           2          0.85669 /_ -150.1 =   -0.74264 +j   -0.4271
846           0          0.85669 /_   29.9 =    0.74264 +j    0.4271

ELEMENT = "Load.D846_848RB"
848           2          0.85667 /_ -150.1 =   -0.74267 +j    -0.427
848           0          0.85667 /_   29.9 =    0.74267 +j     0.427

