caso-0/ieee34-1_Power_elem_kVA.txt

CIRCUIT ELEMENT POWER FLOW

(Power Flow into element from indicated Bus)

Power Delivery Elements

  Bus     Phase     kW     +j   kvar         kVA         PF

ELEMENT = "Vsource.SOURCE"
SOURCEBUS     1      -690.4 +j   -156.1      707.9       0.9754
SOURCEBUS     2      -624.9 +j    -70.6      628.9       0.9937
SOURCEBUS     3      -731.7 +j    -56.6      733.9       0.9970
   TERMINAL TOTAL . -2047.0 +j   -283.3     2066.5       0.9906
SOURCEBUS     0         0.0 +j      0.0        0.0       1.0000
SOURCEBUS     0         0.0 +j      0.0        0.0       1.0000
SOURCEBUS     0         0.0 +j      0.0        0.0       1.0000
   TERMINAL TOTAL .     0.0 +j      0.0        0.0       1.0000

ELEMENT = "Transformer.SUBXF"
SOURCEBUS     1       690.4 +j    156.1      707.9       0.9754
SOURCEBUS     2       624.9 +j     70.6      628.9       0.9937
SOURCEBUS     3       731.7 +j     56.6      733.9       0.9970
SOURCEBUS     0         0.0 +j      0.0        0.0       1.0000
   TERMINAL TOTAL .  2047.0 +j    283.3     2066.5       0.9906
800           1      -763.4 +j   -169.4      781.9       0.9763
800           2      -665.5 +j    -86.2      671.0       0.9917
800           3      -618.2 +j    -27.6      618.8       0.9990
800           0         0.0 +j      0.0        0.0       1.0000
   TERMINAL TOTAL . -2047.0 +j   -283.2     2066.5       0.9906

ELEMENT = "Line.L1"
800           1       763.4 +j    169.4      781.9       0.9763
800           2       665.5 +j     86.2      671.0       0.9917
800           3       618.2 +j     27.6      618.8       0.9990
   TERMINAL TOTAL .  2047.0 +j    283.2     2066.5       0.9906
802           1      -761.7 +j   -169.0      780.2       0.9763
802           2      -664.5 +j    -86.0      670.1       0.9917
802           3      -617.3 +j    -27.7      617.9       0.9990
   TERMINAL TOTAL . -2043.6 +j   -282.7     2063.0       0.9906

ELEMENT = "Line.L2"
802           1       761.7 +j    169.0      780.2       0.9763
802           2       649.5 +j     78.5      654.2       0.9928
802           3       604.8 +j     20.7      605.2       0.9994
   TERMINAL TOTAL .  2016.1 +j    268.2     2033.8       0.9913
806           1      -760.6 +j   -168.7      779.1       0.9763
806           2      -648.9 +j    -78.4      653.6       0.9928
806           3      -604.3 +j    -20.7      604.6       0.9994
   TERMINAL TOTAL . -2013.8 +j   -267.9     2031.5       0.9913

ELEMENT = "Line.L3"
806           1       760.6 +j    168.7      779.1       0.9763
806           2       633.9 +j     70.9      637.9       0.9938
806           3       591.8 +j     13.7      591.9       0.9997
   TERMINAL TOTAL .  1986.3 +j    253.4     2002.4       0.9920
808           1      -739.8 +j   -163.5      757.6       0.9764
808           2      -623.2 +j    -68.9      627.0       0.9939
808           3      -581.8 +j    -14.9      582.0       0.9997
   TERMINAL TOTAL . -1944.8 +j   -247.3     1960.4       0.9920

ELEMENT = "Line.L4"
808           2         8.2 +j      3.2        8.8       0.9312
   TERMINAL TOTAL .     8.2 +j      3.2        8.8       0.9312
810           2        -8.2 +j     -4.2        9.3       0.8891
   TERMINAL TOTAL .    -8.2 +j     -4.2        9.3       0.8891

ELEMENT = "Line.L5"
808           1       739.8 +j    163.5      757.6       0.9764
808           2       606.8 +j     61.4      609.9       0.9949
808           3       581.8 +j     14.9      582.0       0.9997
   TERMINAL TOTAL .  1928.3 +j    239.8     1943.2       0.9924
812           1      -715.4 +j   -156.3      732.3       0.9770
812           2      -595.3 +j    -59.5      598.2       0.9950
812           3      -569.9 +j    -16.0      570.2       0.9996
   TERMINAL TOTAL . -1880.6 +j   -231.8     1894.9       0.9925

ELEMENT = "Line.L6"
812           1       715.4 +j    156.3      732.3       0.9770
812           2       595.3 +j     59.5      598.2       0.9950
812           3       569.9 +j     16.0      570.2       0.9996
   TERMINAL TOTAL .  1880.6 +j    231.8     1894.9       0.9925
814           1      -696.0 +j   -150.0      712.0       0.9775
814           2      -586.2 +j    -57.7      589.1       0.9952
814           3      -560.4 +j    -16.5      560.7       0.9996
   TERMINAL TOTAL . -1842.7 +j   -224.3     1856.3       0.9927

ELEMENT = "Line.L7"
814R          1       695.9 +j    149.7      711.9       0.9776
814R          2       586.2 +j     57.5      589.0       0.9952
814R          3       560.4 +j     16.4      560.6       0.9996
   TERMINAL TOTAL .  1842.5 +j    223.6     1856.0       0.9927
850           1      -695.9 +j   -149.7      711.8       0.9776
850           2      -586.1 +j    -57.5      589.0       0.9952
850           3      -560.4 +j    -16.4      560.6       0.9996
   TERMINAL TOTAL . -1842.4 +j   -223.6     1856.0       0.9927

ELEMENT = "Line.L8"
816           1       173.9 +j     78.8      190.9       0.9109
   TERMINAL TOTAL .   173.9 +j     78.8      190.9       0.9109
818           1      -173.8 +j    -79.0      190.9       0.9104
   TERMINAL TOTAL .  -173.8 +j    -79.0      190.9       0.9104

ELEMENT = "Line.L9"
816           1       521.7 +j     70.9      526.5       0.9909
816           2       584.4 +j     57.7      587.3       0.9952
816           3       559.3 +j     15.1      559.5       0.9996
   TERMINAL TOTAL .  1665.4 +j    143.8     1671.6       0.9963
824           1      -517.5 +j    -71.9      522.5       0.9905
824           2      -578.9 +j    -57.3      581.8       0.9951
824           3      -554.8 +j    -14.8      555.0       0.9996
   TERMINAL TOTAL . -1651.3 +j   -144.0     1657.5       0.9962

ELEMENT = "Line.L10"
818           1       155.8 +j     70.0      170.8       0.9121
   TERMINAL TOTAL .   155.8 +j     70.0      170.8       0.9121
820           1      -152.3 +j    -76.4      170.4       0.8939
   TERMINAL TOTAL .  -152.3 +j    -76.4      170.4       0.8939

ELEMENT = "Line.L11"
820           1        67.7 +j     32.8       75.2       0.8998
   TERMINAL TOTAL .    67.7 +j     32.8       75.2       0.8998
822           1       -67.5 +j    -35.0       76.0       0.8878
   TERMINAL TOTAL .   -67.5 +j    -35.0       76.0       0.8878

ELEMENT = "Line.L12"
824           2        20.2 +j      9.6       22.4       0.9034
   TERMINAL TOTAL .    20.2 +j      9.6       22.4       0.9034
826           2       -20.2 +j    -10.1       22.6       0.8944
   TERMINAL TOTAL .   -20.2 +j    -10.1       22.6       0.8944

ELEMENT = "Line.L13"
824           1       517.5 +j     71.9      522.5       0.9905
824           2       537.0 +j     37.8      538.3       0.9975
824           3       551.9 +j     12.6      552.0       0.9997
   TERMINAL TOTAL .  1606.3 +j    122.3     1611.0       0.9971
828           1      -517.1 +j    -72.0      522.1       0.9905
828           2      -536.6 +j    -37.8      537.9       0.9975
828           3      -551.5 +j    -12.5      551.6       0.9997
   TERMINAL TOTAL . -1605.2 +j   -122.3     1609.9       0.9971

ELEMENT = "Line.L14"
828           1       513.6 +j     70.5      518.5       0.9907
828           2       536.6 +j     37.8      537.9       0.9975
828           3       549.5 +j     11.5      549.6       0.9998
   TERMINAL TOTAL .  1599.7 +j    119.8     1604.2       0.9972
830           1      -505.3 +j    -72.1      510.4       0.9900
830           2      -527.3 +j    -37.8      528.6       0.9974
830           3      -540.5 +j    -11.0      540.7       0.9998
   TERMINAL TOTAL . -1573.1 +j   -120.8     1577.8       0.9971

ELEMENT = "Line.L15"
830           1       485.7 +j     58.7      489.3       0.9928
830           2       517.4 +j     32.9      518.5       0.9980
830           3       521.8 +j      7.9      521.9       0.9999
   TERMINAL TOTAL .  1525.0 +j     99.5     1528.2       0.9979
854           1      -485.6 +j    -58.8      489.1       0.9928
854           2      -517.2 +j    -32.9      518.2       0.9980
854           3      -521.6 +j     -7.9      521.7       0.9999
   TERMINAL TOTAL . -1524.4 +j    -99.5     1527.6       0.9979

ELEMENT = "Line.L16"
832           1       316.5 +j    -24.7      317.4      -0.9970
832           2       343.3 +j    -49.3      346.8      -0.9898
832           3       353.3 +j    -77.6      361.8      -0.9767
   TERMINAL TOTAL .  1013.1 +j   -151.6     1024.4      -0.9890
858           1      -315.8 +j     23.7      316.7      -0.9972
858           2      -342.3 +j     48.6      345.7      -0.9901
858           3      -352.5 +j     77.0      360.8      -0.9770
   TERMINAL TOTAL . -1010.6 +j    149.2     1021.6      -0.9893

ELEMENT = "Line.L17"
834           1       102.1 +j     75.4      126.9       0.8043
834           2       106.3 +j     64.2      124.2       0.8562
834           3       109.8 +j     42.0      117.6       0.9338
   TERMINAL TOTAL .   318.2 +j    181.6      366.4       0.8685
860           1      -102.1 +j    -75.9      127.2       0.8023
860           2      -106.2 +j    -64.7      124.4       0.8543
860           3      -109.8 +j    -42.5      117.7       0.9326
   TERMINAL TOTAL .  -318.1 +j   -183.1      367.0       0.8667

ELEMENT = "Line.L18"
834           1       176.0 +j   -138.1      223.7      -0.7868
834           2       213.1 +j   -117.9      243.6      -0.8750
834           3       185.2 +j   -130.1      226.3      -0.8183
   TERMINAL TOTAL .   574.3 +j   -386.1      692.0      -0.8299
842           1      -176.0 +j    138.0      223.7      -0.7869
842           2      -213.1 +j    117.9      243.5      -0.8751
842           3      -185.1 +j    130.0      226.2      -0.8183
   TERMINAL TOTAL .  -574.3 +j    385.9      691.9      -0.8300

ELEMENT = "Line.L19"
836           1        15.4 +j      6.8       16.8       0.9155
836           2        20.0 +j     11.5       23.1       0.8662
836           3        13.3 +j     13.2       18.8       0.7107
   TERMINAL TOTAL .    48.8 +j     31.5       58.1       0.8398
840           1       -15.4 +j     -7.0       17.0       0.9105
840           2       -20.0 +j    -11.8       23.2       0.8619
840           3       -13.4 +j    -13.4       18.9       0.7057
   TERMINAL TOTAL .   -48.8 +j    -32.2       58.4       0.8348

ELEMENT = "Line.L20"
836           1        -0.0 +j     -0.1        0.1       0.0642
836           2        28.0 +j     13.0       30.9       0.9065
836           3        -0.0 +j     -0.1        0.1       0.0561
   TERMINAL TOTAL .    28.0 +j     12.9       30.8       0.9082
862           1        -0.0 +j     -0.0        0.0       0.8861
862           2       -28.0 +j    -13.1       30.9       0.9056
862           3         0.0 +j     -0.0        0.0      -0.9456
   TERMINAL TOTAL .   -28.0 +j    -13.1       30.9       0.9056

ELEMENT = "Line.L21"
842           1       171.5 +j   -140.5      221.7      -0.7735
842           2       213.1 +j   -117.9      243.5      -0.8751
842           3       185.1 +j   -130.0      226.2      -0.8183
   TERMINAL TOTAL .   569.8 +j   -388.4      689.6      -0.8263
844           1      -171.4 +j    140.2      221.5      -0.7741
844           2      -213.0 +j    117.6      243.3      -0.8754
844           3      -185.1 +j    129.8      226.0      -0.8187
   TERMINAL TOTAL .  -569.5 +j    387.6      688.8      -0.8267

ELEMENT = "Line.L22"
844           1        20.0 +j   -148.2      149.5      -0.1337
844           2        55.8 +j   -128.9      140.5      -0.3973
844           3        30.1 +j   -140.6      143.8      -0.2090
   TERMINAL TOTAL .   105.9 +j   -417.7      430.9      -0.2457
846           1       -19.9 +j    147.2      148.6      -0.1342
846           2       -55.6 +j    128.1      139.6      -0.3983
846           3       -30.0 +j    139.9      143.1      -0.2096
   TERMINAL TOTAL .  -105.5 +j    415.2      428.4      -0.2464

ELEMENT = "Line.L23"
846           1        19.9 +j   -147.2      148.6      -0.1342
846           2        31.6 +j   -139.6      143.1      -0.2209
846           3        20.0 +j   -145.4      146.7      -0.1362
   TERMINAL TOTAL .    71.5 +j   -432.2      438.0      -0.1633
848           1       -19.9 +j    147.1      148.4      -0.1343
848           2       -31.6 +j    139.4      143.0      -0.2209
848           3       -20.0 +j    145.3      146.6      -0.1363
   TERMINAL TOTAL .   -71.5 +j    431.8      437.7      -0.1634

ELEMENT = "Line.L24"
850           1       695.9 +j    149.7      711.8       0.9776
850           2       586.1 +j     57.5      589.0       0.9952
850           3       560.4 +j     16.4      560.6       0.9996
   TERMINAL TOTAL .  1842.4 +j    223.6     1856.0       0.9927
816           1      -695.7 +j   -149.7      711.6       0.9776
816           2      -586.0 +j    -57.5      588.8       0.9952
816           3      -560.2 +j    -16.4      560.5       0.9996
   TERMINAL TOTAL . -1841.9 +j   -223.6     1855.4       0.9927

ELEMENT = "Line.L25"
852R          1       471.7 +j     61.6      475.7       0.9916
852R          2       497.2 +j     34.6      498.4       0.9976
852R          3       506.5 +j      6.8      506.6       0.9999
   TERMINAL TOTAL .  1475.4 +j    103.0     1479.0       0.9976
832           1      -471.7 +j    -61.6      475.7       0.9916
832           2      -497.2 +j    -34.6      498.4       0.9976
832           3      -506.5 +j     -6.8      506.6       0.9999
   TERMINAL TOTAL . -1475.4 +j   -103.1     1479.0       0.9976

ELEMENT = "Transformer.XFM1"
832           1       153.9 +j     85.8      176.2       0.8735
832           2       153.6 +j     83.7      174.9       0.8780
832           3       152.1 +j     83.9      173.7       0.8756
832           0         0.0 +j      0.0        0.0       1.0000
   TERMINAL TOTAL .   459.6 +j    253.4      524.9       0.8757
888           1      -150.7 +j    -78.9      170.1       0.8860
888           2      -150.4 +j    -76.8      168.8       0.8905
888           3      -148.9 +j    -77.1      167.7       0.8881
888           0         0.0 +j      0.0        0.0       1.0000
   TERMINAL TOTAL .  -450.0 +j   -232.8      506.7       0.8882

ELEMENT = "Line.L26"
854           2         2.0 +j     -2.8        3.4      -0.5816
   TERMINAL TOTAL .     2.0 +j     -2.8        3.4      -0.5816
856           2        -2.0 +j     -1.0        2.2       0.8944
   TERMINAL TOTAL .    -2.0 +j     -1.0        2.2       0.8944

ELEMENT = "Line.L27"
854           1       485.6 +j     58.8      489.1       0.9928
854           2       513.2 +j     34.7      514.4       0.9977
854           3       521.6 +j      7.9      521.7       0.9999
   TERMINAL TOTAL .  1520.4 +j    101.3     1523.7       0.9978
852           1      -471.7 +j    -61.8      475.8       0.9915
852           2      -497.3 +j    -34.7      498.5       0.9976
852           3      -506.6 +j     -7.0      506.6       0.9999
   TERMINAL TOTAL . -1475.6 +j   -103.5     1479.2       0.9975

ELEMENT = "Line.L28"
858           1         1.0 +j      0.2        1.0       0.9793
   TERMINAL TOTAL .     1.0 +j      0.2        1.0       0.9793
864           1        -1.0 +j     -0.5        1.1       0.8944
   TERMINAL TOTAL .    -1.0 +j     -0.5        1.1       0.8944

ELEMENT = "Line.L29"
858           1       309.0 +j    -28.5      310.3      -0.9958
858           2       336.3 +j    -49.6      339.9      -0.9893
858           3       344.6 +j    -81.5      354.1      -0.9731
   TERMINAL TOTAL .   989.9 +j   -159.7     1002.7      -0.9872
834           1      -308.3 +j     27.2      309.5      -0.9961
834           2      -335.1 +j     48.7      338.6      -0.9896
834           3      -343.6 +j     80.8      353.0      -0.9735
   TERMINAL TOTAL .  -987.1 +j    156.7      999.4      -0.9876

ELEMENT = "Line.L30"
860           1        38.4 +j     16.9       42.0       0.9154
860           2        67.5 +j     36.5       76.7       0.8799
860           3        32.6 +j     21.0       38.8       0.8412
   TERMINAL TOTAL .   138.6 +j     74.3      157.3       0.8812
836           1       -38.5 +j    -17.6       42.3       0.9092
836           2       -67.4 +j    -37.1       77.0       0.8761
836           3       -32.7 +j    -21.6       39.2       0.8342
   TERMINAL TOTAL .  -138.6 +j    -76.3      158.2       0.8759

ELEMENT = "Line.L31"
862           2        14.0 +j      6.1       15.3       0.9165
   TERMINAL TOTAL .    14.0 +j      6.1       15.3       0.9165
838           2       -14.0 +j     -7.0       15.7       0.8944
   TERMINAL TOTAL .   -14.0 +j     -7.0       15.7       0.8944

ELEMENT = "Line.L32"
888           1       150.7 +j     78.9      170.1       0.8860
888           2       150.4 +j     76.8      168.8       0.8905
888           3       148.9 +j     77.1      167.7       0.8881
   TERMINAL TOTAL .   450.0 +j    232.8      506.7       0.8882
890           1      -139.1 +j    -71.1      156.2       0.8903
890           2      -140.4 +j    -68.6      156.3       0.8984
890           3      -137.8 +j    -68.8      154.0       0.8945
   TERMINAL TOTAL .  -417.3 +j   -208.6      466.5       0.8944

ELEMENT = "Capacitor.C844"
844           1         0.0 +j   -108.9      108.9       1.0000
844           2         0.0 +j   -107.1      107.1       1.0000
844           3        -0.0 +j   -107.4      107.4       0.0000
   TERMINAL TOTAL .    -0.0 +j   -323.4      323.4       0.0000
844           0         0.0 +j      0.0        0.0       1.0000
844           0         0.0 +j      0.0        0.0       1.0000
844           0         0.0 +j      0.0        0.0       1.0000
   TERMINAL TOTAL .     0.0 +j      0.0        0.0       1.0000

ELEMENT = "Capacitor.C848"
848           1         0.0 +j   -163.4      163.4       1.0000
848           2         0.0 +j   -160.7      160.7       1.0000
848           3         0.0 +j   -161.2      161.2      -0.0000
   TERMINAL TOTAL .     0.0 +j   -485.3      485.3      -0.0000
848           0         0.0 +j      0.0        0.0       1.0000
848           0         0.0 +j      0.0        0.0       1.0000
848           0         0.0 +j      0.0        0.0       1.0000
   TERMINAL TOTAL .     0.0 +j      0.0        0.0       1.0000

ELEMENT = "Transformer.REG1A"
814           1       696.0 +j    150.0      712.0       0.9775
814           0         0.0 +j      0.0        0.0       1.0000
   TERMINAL TOTAL .   696.0 +j    150.0      712.0       0.9775
814R          1      -695.9 +j   -149.7      711.9       0.9776
814R          0         0.0 +j      0.0        0.0       1.0000
   TERMINAL TOTAL .  -695.9 +j   -149.7      711.9       0.9776

ELEMENT = "Transformer.REG1B"
814           2       586.2 +j     57.7      589.1       0.9952
814           0         0.0 +j      0.0        0.0       1.0000
   TERMINAL TOTAL .   586.2 +j     57.7      589.1       0.9952
814R          2      -586.2 +j    -57.5      589.0       0.9952
814R          0         0.0 +j      0.0        0.0       1.0000
   TERMINAL TOTAL .  -586.2 +j    -57.5      589.0       0.9952

ELEMENT = "Transformer.REG1C"
814           3       560.4 +j     16.5      560.7       0.9996
814           0         0.0 +j      0.0        0.0       1.0000
   TERMINAL TOTAL .   560.4 +j     16.5      560.7       0.9996
814R          3      -560.4 +j    -16.4      560.6       0.9996
814R          0         0.0 +j      0.0        0.0       1.0000
   TERMINAL TOTAL .  -560.4 +j    -16.4      560.6       0.9996

ELEMENT = "Transformer.REG2A"
852           1       471.7 +j     61.8      475.8       0.9915
852           0         0.0 +j      0.0        0.0       1.0000
   TERMINAL TOTAL .   471.7 +j     61.8      475.8       0.9915
852R          1      -471.7 +j    -61.6      475.7       0.9916
852R          0         0.0 +j      0.0        0.0       1.0000
   TERMINAL TOTAL .  -471.7 +j    -61.6      475.7       0.9916

ELEMENT = "Transformer.REG2B"
852           2       497.3 +j     34.7      498.5       0.9976
852           0         0.0 +j      0.0        0.0       1.0000
   TERMINAL TOTAL .   497.3 +j     34.7      498.5       0.9976
852R          2      -497.2 +j    -34.6      498.4       0.9976
852R          0         0.0 +j      0.0        0.0       1.0000
   TERMINAL TOTAL .  -497.2 +j    -34.6      498.4       0.9976

ELEMENT = "Transformer.REG2C"
852           3       506.6 +j      7.0      506.6       0.9999
852           0         0.0 +j      0.0        0.0       1.0000
   TERMINAL TOTAL .   506.6 +j      7.0      506.6       0.9999
852R          3      -506.5 +j     -6.8      506.6       0.9999
852R          0         0.0 +j      0.0        0.0       1.0000
   TERMINAL TOTAL .  -506.5 +j     -6.8      506.6       0.9999

= = = = = = = = = = = = = = = = = = =  = = = = = = = = = = =  = =

Power Conversion Elements

  Bus     Phase     kW   +j  kvar         kVA         PF

ELEMENT = "Load.S860"
860           1      20.0 +j   16.0       25.6       0.7809
860           2      20.0 +j   16.0       25.6       0.7809
860           3      20.0 +j   16.0       25.6       0.7809
860           0       0.0 +j    0.0        0.0       1.0000
  TERMINAL TOTAL  .    60.0 +j     48.0       76.8       0.7809

ELEMENT = "Load.S840"
840           1       9.4 +j    7.3       11.9       0.7894
840           2       9.3 +j    7.2       11.8       0.7894
840           3       9.3 +j    7.3       11.8       0.7894
840           0       0.0 +j    0.0        0.0       1.0000
  TERMINAL TOTAL  .    28.0 +j     21.8       35.5       0.7894

ELEMENT = "Load.S844"
844           1     147.0 +j  114.3      186.2       0.7894
844           2     144.6 +j  112.5      183.2       0.7894
844           3     145.0 +j  112.8      183.7       0.7894
844           0       0.0 +j    0.0        0.0       1.0000
  TERMINAL TOTAL  .   436.6 +j    339.6      553.1       0.7894

ELEMENT = "Load.S848"
848           1      19.9 +j   16.3       25.7       0.7746
848           2      20.1 +j   15.8       25.5       0.7866
848           3      20.0 +j   16.0       25.6       0.7815
  TERMINAL TOTAL  .    60.0 +j     48.0       76.8       0.7809

ELEMENT = "Load.S830A"
830           1       6.5 +j   -0.3        6.5      -0.9987
830           2       3.6 +j    5.3        6.4       0.5541
  TERMINAL TOTAL  .    10.0 +j      5.0       11.2       0.8944

ELEMENT = "Load.S830B"
830           2       6.3 +j   -0.4        6.3      -0.9978
830           3       3.5 +j    5.3        6.3       0.5465
  TERMINAL TOTAL  .     9.8 +j      4.9       11.0       0.8944

ELEMENT = "Load.S830C"
830           3      15.2 +j   -2.2       15.4      -0.9894
830           1       9.6 +j   12.2       15.5       0.6197
  TERMINAL TOTAL  .    24.8 +j      9.9       26.8       0.9285

ELEMENT = "Load.S890"
890           1     139.1 +j   71.1      156.2       0.8903
890           2     140.4 +j   68.6      156.3       0.8984
890           3     137.8 +j   68.8      154.0       0.8945
  TERMINAL TOTAL  .   417.3 +j    208.6      466.5       0.8944

ELEMENT = "Load.D802_806SB"
802           2      15.0 +j    7.5       16.8       0.8944
802           0       0.0 +j    0.0        0.0       1.0000
  TERMINAL TOTAL  .    15.0 +j      7.5       16.8       0.8944

ELEMENT = "Load.D802_806RB"
806           2      15.0 +j    7.5       16.8       0.8944
806           0       0.0 +j    0.0        0.0       1.0000
  TERMINAL TOTAL  .    15.0 +j      7.5       16.8       0.8944

ELEMENT = "Load.D802_806SC"
802           3      12.5 +j    7.0       14.3       0.8725
802           0       0.0 +j    0.0        0.0       1.0000
  TERMINAL TOTAL  .    12.5 +j      7.0       14.3       0.8725

ELEMENT = "Load.D802_806RC"
806           3      12.5 +j    7.0       14.3       0.8725
806           0       0.0 +j    0.0        0.0       1.0000
  TERMINAL TOTAL  .    12.5 +j      7.0       14.3       0.8725

ELEMENT = "Load.D808_810SB"
808           2       8.2 +j    4.2        9.3       0.8891
808           0       0.0 +j    0.0        0.0       1.0000
  TERMINAL TOTAL  .     8.2 +j      4.2        9.3       0.8891

ELEMENT = "Load.D808_810RB"
810           2       8.2 +j    4.2        9.3       0.8891
810           0       0.0 +j    0.0        0.0       1.0000
  TERMINAL TOTAL  .     8.2 +j      4.2        9.3       0.8891

ELEMENT = "Load.D818_820SA"
818           1      18.0 +j    9.0       20.1       0.8944
818           0       0.0 +j    0.0        0.0       1.0000
  TERMINAL TOTAL  .    18.0 +j      9.0       20.1       0.8944

ELEMENT = "Load.D818_820RA"
820           1      17.1 +j    8.6       19.2       0.8944
820           0       0.0 +j    0.0        0.0       1.0000
  TERMINAL TOTAL  .    17.1 +j      8.6       19.2       0.8944

ELEMENT = "Load.D820_822SA"
820           1      67.5 +j   35.0       76.0       0.8878
820           0       0.0 +j    0.0        0.0       1.0000
  TERMINAL TOTAL  .    67.5 +j     35.0       76.0       0.8878

ELEMENT = "Load.D820_822RA"
822           1      67.5 +j   35.0       76.0       0.8878
822           0       0.0 +j    0.0        0.0       1.0000
  TERMINAL TOTAL  .    67.5 +j     35.0       76.0       0.8878

ELEMENT = "Load.D816_824SB"
816           2       1.6 +j   -0.2        1.6      -0.9889
816           3       1.0 +j    1.3        1.6       0.6135
  TERMINAL TOTAL  .     2.5 +j      1.0        2.7       0.9285

ELEMENT = "Load.D816_824RB"
824           2       1.6 +j   -0.2        1.6      -0.9889
824           3       1.0 +j    1.2        1.6       0.6138
  TERMINAL TOTAL  .     2.5 +j      1.0        2.7       0.9285

ELEMENT = "Load.D824_826SB"
824           2      20.2 +j   10.1       22.6       0.8944
824           0       0.0 +j    0.0        0.0       1.0000
  TERMINAL TOTAL  .    20.2 +j     10.1       22.6       0.8944

ELEMENT = "Load.D824_826RB"
826           2      20.2 +j   10.1       22.6       0.8944
826           0       0.0 +j    0.0        0.0       1.0000
  TERMINAL TOTAL  .    20.2 +j     10.1       22.6       0.8944

ELEMENT = "Load.D824_828SC"
824           3       2.0 +j    1.0        2.2       0.8944
824           0       0.0 +j    0.0        0.0       1.0000
  TERMINAL TOTAL  .     2.0 +j      1.0        2.2       0.8944

ELEMENT = "Load.D824_828RC"
828           3       2.0 +j    1.0        2.2       0.8944
828           0       0.0 +j    0.0        0.0       1.0000
  TERMINAL TOTAL  .     2.0 +j      1.0        2.2       0.8944

ELEMENT = "Load.D828_830SA"
828           1       3.5 +j    1.5        3.8       0.9191
828           0       0.0 +j    0.0        0.0       1.0000
  TERMINAL TOTAL  .     3.5 +j      1.5        3.8       0.9191

ELEMENT = "Load.D828_830RA"
830           1       3.5 +j    1.5        3.8       0.9191
830           0       0.0 +j    0.0        0.0       1.0000
  TERMINAL TOTAL  .     3.5 +j      1.5        3.8       0.9191

ELEMENT = "Load.D854_856SB"
854           2       2.0 +j    1.0        2.2       0.8944
854           0       0.0 +j    0.0        0.0       1.0000
  TERMINAL TOTAL  .     2.0 +j      1.0        2.2       0.8944

ELEMENT = "Load.D854_856RB"
856           2       2.0 +j    1.0        2.2       0.8944
856           0       0.0 +j    0.0        0.0       1.0000
  TERMINAL TOTAL  .     2.0 +j      1.0        2.2       0.8944

ELEMENT = "Load.D832_858SA"
832           1       1.3 +j    0.5        1.4       0.9191
832           0       0.0 +j    0.0        0.0       1.0000
  TERMINAL TOTAL  .     1.3 +j      0.5        1.4       0.9191

ELEMENT = "Load.D832_858RA"
858           1       1.3 +j    0.5        1.4       0.9191
858           0       0.0 +j    0.0        0.0       1.0000
  TERMINAL TOTAL  .     1.3 +j      0.5        1.4       0.9191

ELEMENT = "Load.D832_858SB"
832           2       0.4 +j    0.2        0.4       0.8944
832           0       0.0 +j    0.0        0.0       1.0000
  TERMINAL TOTAL  .     0.4 +j      0.2        0.4       0.8944

ELEMENT = "Load.D832_858RB"
858           2       0.4 +j    0.2        0.4       0.8944
858           0       0.0 +j    0.0        0.0       1.0000
  TERMINAL TOTAL  .     0.4 +j      0.2        0.4       0.8944

ELEMENT = "Load.D832_858SC"
832           3       1.1 +j    0.5        1.2       0.8944
832           0       0.0 +j    0.0        0.0       1.0000
  TERMINAL TOTAL  .     1.1 +j      0.5        1.2       0.8944

ELEMENT = "Load.D832_858RC"
858           3       1.1 +j    0.5        1.2       0.8944
858           0       0.0 +j    0.0        0.0       1.0000
  TERMINAL TOTAL  .     1.1 +j      0.5        1.2       0.8944

ELEMENT = "Load.D858_864SB"
858           1       1.0 +j    0.5        1.1       0.8944
858           0       0.0 +j    0.0        0.0       1.0000
  TERMINAL TOTAL  .     1.0 +j      0.5        1.1       0.8944

ELEMENT = "Load.D858_864RB"
864           1       1.0 +j    0.5        1.1       0.8944
864           0       0.0 +j    0.0        0.0       1.0000
  TERMINAL TOTAL  .     1.0 +j      0.5        1.1       0.8944

ELEMENT = "Load.D858_834SA"
858           1       1.3 +j   -0.1        1.3      -0.9988
858           2       0.7 +j    1.1        1.3       0.5569
  TERMINAL TOTAL  .     2.0 +j      1.0        2.2       0.8944

ELEMENT = "Load.D858_834RA"
834           1       1.3 +j   -0.1        1.3      -0.9988
834           2       0.7 +j    1.1        1.3       0.5572
  TERMINAL TOTAL  .     2.0 +j      1.0        2.2       0.8944

ELEMENT = "Load.D858_834SB"
858           2       4.9 +j   -0.2        4.9      -0.9993
858           3       2.6 +j    4.2        4.9       0.5254
  TERMINAL TOTAL  .     7.5 +j      4.0        8.5       0.8824

ELEMENT = "Load.D858_834RB"
834           2       4.9 +j   -0.2        4.9      -0.9993
834           3       2.6 +j    4.2        4.9       0.5256
  TERMINAL TOTAL  .     7.5 +j      4.0        8.5       0.8824

ELEMENT = "Load.D858_834SC"
858           3       4.3 +j   -0.2        4.3      -0.9993
858           1       2.2 +j    3.7        4.3       0.5230
  TERMINAL TOTAL  .     6.5 +j      3.5        7.4       0.8805

ELEMENT = "Load.D858_834RC"
...