caso-0/ieee34-1_VLN_Node.Txt

LINE-GROUND and LINE-LINE VOLTAGES BY BUS & NODE

Bus       Node    VLN (kV)   Angle      pu     Base kV    Node-Node   VLL (kV)  Angle      pu

SOURCEBUS 1       41.829 /_   30.0      1.05    69.000        1-2      72.45 /_   60.0      1.05
   -      2       41.829 /_  -90.0      1.05    69.000        2-3      72.45 /_  -60.0      1.05
   -      3       41.829 /_  150.0      1.05    69.000        3-1      72.45 /_  180.0      1.05
800 ..... 1       15.095 /_    0.0      1.05    24.900        1-2     26.145 /_   30.0      1.05
   -      2       15.095 /_ -120.0      1.05    24.900        2-3     26.145 /_  -90.0      1.05
   -      3       15.095 /_  120.0      1.05    24.900        3-1     26.145 /_  150.0      1.05
802 ..... 1       15.058 /_   -0.1    1.0474    24.900        1-2     26.096 /_   30.0     1.048
   -      2       15.072 /_ -120.1    1.0484    24.900        2-3     26.104 /_  -90.1    1.0483
   -      3       15.072 /_  119.9    1.0484    24.900        3-1     26.094 /_  149.9    1.0479
806 ..... 1       15.033 /_   -0.1    1.0457    24.900        1-2     26.063 /_   29.9    1.0467
   -      2       15.058 /_ -120.1    1.0475    24.900        2-3     26.077 /_  -90.1    1.0473
   -      3       15.057 /_  119.9    1.0474    24.900        3-1      26.06 /_  149.9    1.0466
808 ..... 1       14.571 /_   -0.8    1.0135    24.900        1-2     25.464 /_   29.4    1.0227
   -      2       14.805 /_ -121.0    1.0299    24.900        2-3     25.597 /_  -90.8     1.028
   -      3       14.789 /_  119.3    1.0287    24.900        3-1     25.435 /_  149.0    1.0215
810 ..... 2       14.803 /_ -121.0    1.0297    24.900
812 ..... 1       14.033 /_   -1.6   0.97611    24.900        1-2     24.774 /_   28.8   0.99492
   -      2       14.528 /_ -121.9    1.0106    24.900        2-3      25.05 /_  -91.7     1.006
   -      3       14.471 /_  118.6    1.0066    24.900        3-1      24.71 /_  148.0   0.99238
814 ..... 1       13.605 /_   -2.3    0.9464    24.900        1-2     24.223 /_   28.3   0.97283
   -      2       14.309 /_ -122.7    0.9953    24.900        2-3     24.616 /_  -92.5    0.9886
   -      3       14.218 /_  118.0   0.98899    24.900        3-1     24.137 /_  147.1   0.96934
814R .... 1       14.792 /_   -2.3     1.029    24.900        1-2     25.559 /_   27.3    1.0265
   -      2       14.664 /_ -122.7      1.02    24.900        2-3     25.305 /_  -92.4    1.0163
   -      3        14.66 /_  118.0    1.0198    24.900        3-1     25.549 /_  148.0    1.0261
850 ..... 1       14.792 /_   -2.3    1.0289    24.900        1-2     25.559 /_   27.3    1.0264
   -      2       14.664 /_ -122.7      1.02    24.900        2-3     25.304 /_  -92.4    1.0162
   -      3        14.66 /_  118.0    1.0198    24.900        3-1     25.548 /_  148.0     1.026
816 ..... 1       14.786 /_   -2.3    1.0286    24.900        1-2     25.551 /_   27.3    1.0261
   -      2        14.66 /_ -122.7    1.0198    24.900        2-3     25.298 /_  -92.4     1.016
   -      3       14.656 /_  118.0    1.0195    24.900        3-1      25.54 /_  148.0    1.0257
818 ..... 1       14.773 /_   -2.4    1.0276    24.900
824 ..... 1       14.657 /_   -2.5    1.0195    24.900        1-2     25.335 /_   27.1    1.0175
   -      2       14.524 /_ -123.0    1.0103    24.900        2-3     25.078 /_  -92.6    1.0072
   -      3       14.535 /_  117.7    1.0111    24.900        3-1     25.305 /_  147.8    1.0163
820 ..... 1       14.436 /_   -2.4    1.0042    24.900
822 ..... 1       14.393 /_   -2.4    1.0012    24.900
826 ..... 2       14.522 /_ -123.0    1.0101    24.900
828 ..... 1       14.646 /_   -2.5    1.0188    24.900        1-2     25.318 /_   27.1    1.0168
   -      2       14.514 /_ -123.0    1.0096    24.900        2-3     25.061 /_  -92.6    1.0065
   -      3       14.525 /_  117.7    1.0104    24.900        3-1     25.286 /_  147.8    1.0155
830 ..... 1        14.39 /_   -2.7     1.001    24.900        1-2     24.908 /_   26.8    1.0003
   -      2        14.27 /_ -123.4   0.99266    24.900        2-3     24.646 /_  -93.1    0.9898
   -      3        14.28 /_  117.2   0.99329    24.900        3-1      24.82 /_  147.4    0.9968
854 ..... 1       14.384 /_   -2.7    1.0005    24.900        1-2     24.898 /_   26.8    0.9999
   -      2       14.264 /_ -123.4   0.99224    24.900        2-3     24.636 /_  -93.1   0.98939
   -      3       14.274 /_  117.2   0.99287    24.900        3-1     24.809 /_  147.4   0.99634
832 ..... 1       15.074 /_   -3.2    1.0486    24.900        1-2     26.143 /_   26.1    1.0499
   -      2       14.958 /_ -124.3    1.0405    24.900        2-3     25.851 /_  -94.0    1.0382
   -      3        14.97 /_  116.3    1.0413    24.900        3-1     25.952 /_  146.6    1.0422
858 ..... 1       15.041 /_   -3.3    1.0463    24.900        1-2     26.089 /_   26.1    1.0477
   -      2       14.925 /_ -124.4    1.0382    24.900        2-3     25.797 /_  -94.1     1.036
   -      3       14.939 /_  116.1    1.0392    24.900        3-1     25.889 /_  146.5    1.0397
834 ..... 1       15.003 /_   -3.4    1.0436    24.900        1-2     26.026 /_   26.0    1.0452
   -      2       14.886 /_ -124.5    1.0354    24.900        2-3     25.735 /_  -94.2    1.0335
   -      3       14.903 /_  116.0    1.0366    24.900        3-1     25.817 /_  146.4    1.0368
860 ..... 1       14.996 /_   -3.4    1.0432    24.900        1-2     26.017 /_   26.0    1.0448
   -      2       14.879 /_ -124.5     1.035    24.900        2-3     25.725 /_  -94.2    1.0332
   -      3       14.898 /_  116.0    1.0363    24.900        3-1     25.806 /_  146.4    1.0364
842 ..... 1       15.002 /_   -3.4    1.0435    24.900        1-2     26.025 /_   26.0    1.0452
   -      2       14.885 /_ -124.5    1.0354    24.900        2-3     25.734 /_  -94.2    1.0335
   -      3       14.902 /_  116.0    1.0366    24.900        3-1     25.816 /_  146.4    1.0368
836 ..... 1       14.993 /_   -3.3    1.0429    24.900        1-2      26.01 /_   26.0    1.0446
   -      2       14.874 /_ -124.5    1.0347    24.900        2-3     25.719 /_  -94.2    1.0329
   -      3       14.896 /_  116.0    1.0361    24.900        3-1     25.802 /_  146.4    1.0362
840 ..... 1       14.993 /_   -3.3    1.0429    24.900        1-2     26.009 /_   26.0    1.0445
   -      2       14.874 /_ -124.5    1.0346    24.900        2-3     25.718 /_  -94.2    1.0329
   -      3       14.895 /_  116.0    1.0361    24.900        3-1     25.801 /_  146.4    1.0362
862 ..... 1       14.993 /_   -3.3    1.0429    24.900        1-2      26.01 /_   26.0    1.0446
   -      2       14.874 /_ -124.5    1.0346    24.900        2-3     25.719 /_  -94.2    1.0329
   -      3       14.896 /_  116.0    1.0361    24.900        3-1     25.802 /_  146.4    1.0362
844 ..... 1       14.999 /_   -3.4    1.0433    24.900        1-2     26.019 /_   25.9    1.0449
   -      2        14.88 /_ -124.5    1.0351    24.900        2-3     25.727 /_  -94.2    1.0332
   -      3       14.899 /_  116.0    1.0364    24.900        3-1      25.81 /_  146.4    1.0366
846 ..... 1       15.003 /_   -3.4    1.0436    24.900        1-2     26.022 /_   25.9    1.0451
   -      2        14.88 /_ -124.5     1.035    24.900        2-3     25.731 /_  -94.3    1.0334
   -      3       14.903 /_  115.9    1.0367    24.900        3-1     25.816 /_  146.4    1.0368
848 ..... 1       15.003 /_   -3.4    1.0436    24.900        1-2     26.023 /_   25.9    1.0451
   -      2        14.88 /_ -124.5    1.0351    24.900        2-3     25.732 /_  -94.3    1.0334
   -      3       14.904 /_  115.9    1.0367    24.900        3-1     25.817 /_  146.4    1.0368
852R .... 1       15.074 /_   -3.2    1.0486    24.900        1-2     26.143 /_   26.1    1.0499
   -      2       14.958 /_ -124.3    1.0405    24.900        2-3     25.851 /_  -94.0    1.0382
   -      3       14.971 /_  116.3    1.0414    24.900        3-1     25.952 /_  146.6    1.0423
888 ..... 1        2.431 /_   -4.7    1.0122     4.160        1-2     4.2165 /_   24.6    1.0136
   -      2       2.4121 /_ -125.8    1.0043     4.160        2-3     4.1686 /_  -95.5    1.0021
   -      3       2.4146 /_  114.7    1.0053     4.160        3-1     4.1853 /_  145.1    1.0061
856 ..... 2       14.263 /_ -123.4   0.99214    24.900
852 ..... 1       13.944 /_   -3.2   0.96992    24.900        1-2     24.181 /_   26.1   0.97114
   -      2       13.836 /_ -124.2   0.96241    24.900        2-3     23.911 /_  -94.0   0.96029
   -      3       13.847 /_  116.3   0.96321    24.900        3-1     24.005 /_  146.6   0.96406
864 ..... 1       15.041 /_   -3.3    1.0463    24.900
838 ..... 2       14.872 /_ -124.5    1.0345    24.900
890 ..... 1       2.2317 /_   -5.3   0.92918     4.160        1-2     3.8959 /_   24.0   0.93652
   -      2       2.2326 /_ -126.8   0.92956     4.160        2-3     3.8392 /_  -96.6   0.92288
   -      3       2.2171 /_  113.9    0.9231     4.160        3-1      3.837 /_  144.4   0.92235
